[TITLE]
Kohn's Wasserwirtschaft
Fabio Q.
2024-05-22

[OPTIONS]
flow_units           CMS
infiltration         HORTON
flow_routing         KINWAVE
start_date           01/01/2007
start_time           00:00:00
report_start_date    01/01/2007
report_start_time    00:00:00
end_date             01/01/2007
end_time             12:00:00
sweep_start          01/01
sweep_end            12/31
dry_days             0
report_step          00:01:00
wet_step             00:01:00
dry_step             01:00:00
routing_step         0:01:00
allow_ponding        NO
inertial_damping     PARTIAL
variable_step        0.75
lengthening_step     0
min_surfarea         0
normal_flow_limited  SLOPE
skip_steady_state    NO
force_main_equation  H-W
link_offsets         DEPTH
min_slope            0

[EVAPORATION]
;;Type       Parameters
;;---------- ----------
CONSTANT   0.0

[RAINGAGES]
;;               Rain      Time   Snow   Data
;;Name           Type      Intrvl Catch  Source
;;-------------- --------- ------ ------ ----------
RainGage        INTENSITY 0:05   1.0    TIMESERIES 5-yr 

[SUBCATCHMENTS]
;;                                                         Total        Pcnt.             Pcnt.    Curb     Snow 
;;Name                   Raingage         Outlet           Area         Imperv   Width    Slope    Length   Pack 
;;---------------------- ---------------- ---------------- ------------ -------- -------- -------- -------- --------
F_119001                  RainGage         119001           1.32         0.0      100      1.0      0       
F_119001_bef              RainGage         119001           0.0502       0.0      100      1.0      0       
F_119001_Dach             RainGage         119001           0.0          0.0      100      1.0      0       
F_119002                  RainGage         119001           0.1579       0.0      100      1.0      0       
F_119002_bef              RainGage         119001           0.0244       0.0      100      1.0      0       
F_119002_Dach             RainGage         119001           0.0          0.0      100      1.0      0       
F_119003                  RainGage         119001           0.0785       0.0      100      1.0      0       
F_119003_bef              RainGage         119001           0.0226       0.0      100      1.0      0       
F_119003_Dach             RainGage         119001           0.0          0.0      100      1.0      0       
F_119004                  RainGage         119001           0.0          0.0      100      1.0      0       
F_119004_bef              RainGage         119001           0.0          0.0      100      1.0      0       
F_119004_Dach             RainGage         119001           0.0          0.0      100      1.0      0       
F_119004B01               RainGage         119001           0.1097       0.0      100      1.0      0       
F_119004B01_bef           RainGage         119001           0.0269       0.0      100      1.0      0       
F_119004B01_Dach          RainGage         119001           0.0          0.0      100      1.0      0       
F_119004SF01              RainGage         119001           0.0          0.0      100      1.0      0       
F_119004SF01_bef          RainGage         119001           0.0          0.0      100      1.0      0       
F_119004SF01_Dach         RainGage         119001           0.0          0.0      100      1.0      0       
F_119005                  RainGage         119001           0.1401       0.0      100      1.0      0       
F_119005_bef              RainGage         119001           0.0611       0.0      100      1.0      0       
F_119005_Dach             RainGage         119001           0.0067       0.0      100      1.0      0       
F_119007                  RainGage         119001           0.176        0.0      100      1.0      0       
F_119007_bef              RainGage         119001           0.0872       0.0      100      1.0      0       
F_119007_Dach             RainGage         119001           0.0163       0.0      100      1.0      0       
F_119007_Dach2            RainGage         119001           0.0067       0.0      100      1.0      0       
F_119008                  RainGage         119001           0.1768       0.0      100      1.0      0       
F_119008_bef              RainGage         119001           0.1624       0.0      100      1.0      0       
F_119008_Dach             RainGage         119001           0.0664       0.0      100      1.0      0       
F_119009                  RainGage         119001           0.1579       0.0      100      1.0      0       
F_119009_bef              RainGage         119001           0.1242       0.0      100      1.0      0       
F_119009_Dach             RainGage         119001           0.0214       0.0      100      1.0      0       
F_119010                  RainGage         119001           0.1157       0.0      100      1.0      0       
F_119010_bef              RainGage         119001           0.1099       0.0      100      1.0      0       
F_119010_Dach             RainGage         119001           0.0          0.0      100      1.0      0       
F_119011                  RainGage         119001           0.0          0.0      100      1.0      0       
F_119011_bef              RainGage         119001           0.0          0.0      100      1.0      0       
F_119011_Dach             RainGage         119001           0.0          0.0      100      1.0      0       
F_119012A                 RainGage         119001           0.0          0.0      100      1.0      0       
F_119012A_bef             RainGage         119001           0.0          0.0      100      1.0      0       
F_119012A_Dach            RainGage         119001           0.0          0.0      100      1.0      0       
F_119012B                 RainGage         119001           0.0          0.0      100      1.0      0       
F_119012B_bef             RainGage         119001           0.0          0.0      100      1.0      0       
F_119012B_Dach            RainGage         119001           0.0          0.0      100      1.0      0       
F_119012B01               RainGage         119001           0.0          0.0      100      1.0      0       
F_119012B01_bef           RainGage         119001           0.0          0.0      100      1.0      0       
F_119012B01_Dach          RainGage         119001           0.0          0.0      100      1.0      0       
F_119012B02               RainGage         119001           0.0          0.0      100      1.0      0       
F_119012B02_bef           RainGage         119001           0.0          0.0      100      1.0      0       
F_119012B02_Dach          RainGage         119001           0.0          0.0      100      1.0      0       
F_119012B03               RainGage         119001           0.0          0.0      100      1.0      0       
F_119012B03_bef           RainGage         119001           0.0          0.0      100      1.0      0       
F_119012B03_Dach          RainGage         119001           0.0          0.0      100      1.0      0       
F_119012C                 RainGage         119001           0.0          0.0      100      1.0      0       
F_119012C_bef             RainGage         119001           0.0          0.0      100      1.0      0       
F_119012C_Dach            RainGage         119001           0.0          0.0      100      1.0      0       
F_119012SF01              RainGage         119001           0.0          0.0      100      1.0      0       
F_119012SF01_bef          RainGage         119001           0.0          0.0      100      1.0      0       
F_119012SF01_Dach         RainGage         119001           0.0          0.0      100      1.0      0       
F_119012SF02              RainGage         119001           0.0          0.0      100      1.0      0       
F_119012SF02_bef          RainGage         119001           0.0          0.0      100      1.0      0       
F_119012SF02_Dach         RainGage         119001           0.0          0.0      100      1.0      0       
F_119012SF03              RainGage         119001           0.0          0.0      100      1.0      0       
F_119012SF03_bef          RainGage         119001           0.0          0.0      100      1.0      0       
F_119012SF03_Dach         RainGage         119001           0.0          0.0      100      1.0      0       
F_119013                  RainGage         119001           0.0          0.0      100      1.0      0       
F_119013_bef              RainGage         119001           0.0          0.0      100      1.0      0       
F_119013_Dach             RainGage         119001           0.0          0.0      100      1.0      0       
F_119014                  RainGage         119001           0.2905       0.0      100      1.0      0       
F_119014_bef              RainGage         119001           0.0587       0.0      100      1.0      0       
F_119014_Dach             RainGage         119001           0.0          0.0      100      1.0      0       
F_119015                  RainGage         119001           0.0          0.0      100      1.0      0       
F_119015_bef              RainGage         119001           0.0          0.0      100      1.0      0       
F_119015_Dach             RainGage         119001           0.0          0.0      100      1.0      0       
F_119015A                 RainGage         119001           0.0491       0.0      100      1.0      0       
F_119015A_bef             RainGage         119001           0.0491       0.0      100      1.0      0       
F_119015A_Dach            RainGage         119001           0.0491       0.0      100      1.0      0       
F_119016AUSF              RainGage         119001           0.0          0.0      100      1.0      0       
F_119016AUSF_bef          RainGage         119001           0.0          0.0      100      1.0      0       
F_119016AUSF_Dach         RainGage         119001           0.0          0.0      100      1.0      0       
F_119017                  RainGage         119001           0.0142       0.0      100      1.0      0       
F_119017_bef              RainGage         119001           0.0142       0.0      100      1.0      0       
F_119017_Dach             RainGage         119001           0.0134       0.0      100      1.0      0       
F_119018                  RainGage         119001           0.0243       0.0      100      1.0      0       
F_119018_bef              RainGage         119001           0.0243       0.0      100      1.0      0       
F_119018_Dach             RainGage         119001           0.0233       0.0      100      1.0      0       
F_119019                  RainGage         119001           0.0159       0.0      100      1.0      0       
F_119019_bef              RainGage         119001           0.0159       0.0      100      1.0      0       
F_119019_Dach             RainGage         119001           0.0153       0.0      100      1.0      0       
F_119020                  RainGage         119001           0.0331       0.0      100      1.0      0       
F_119020_bef              RainGage         119001           0.0331       0.0      100      1.0      0       
F_119020_Dach             RainGage         119001           0.0331       0.0      100      1.0      0       
F_119021                  RainGage         119001           0.0867       0.0      100      1.0      0       
F_119021_bef              RainGage         119001           0.0867       0.0      100      1.0      0       
F_119021_Dach             RainGage         119001           0.0867       0.0      100      1.0      0       
F_119022                  RainGage         119001           0.1232       0.0      100      1.0      0       
F_119022_bef              RainGage         119001           0.1232       0.0      100      1.0      0       
F_119022_Dach             RainGage         119001           0.1232       0.0      100      1.0      0       
F_119023                  RainGage         119001           0.0          0.0      100      1.0      0       
F_119023_bef              RainGage         119001           0.0          0.0      100      1.0      0       
F_119023_Dach             RainGage         119001           0.0          0.0      100      1.0      0       
F_119024                  RainGage         119001           0.1405       0.0      100      1.0      0       
F_119024_bef              RainGage         119001           0.1405       0.0      100      1.0      0       
F_119024_Dach             RainGage         119001           0.1405       0.0      100      1.0      0       
F_119025                  RainGage         119001           0.1401       0.0      100      1.0      0       
F_119025_bef              RainGage         119001           0.1401       0.0      100      1.0      0       
F_119025_Dach             RainGage         119001           0.1401       0.0      100      1.0      0       
F_119026                  RainGage         119001           0.1222       0.0      100      1.0      0       
F_119026_bef              RainGage         119001           0.1222       0.0      100      1.0      0       
F_119026_Dach             RainGage         119001           0.1222       0.0      100      1.0      0       
F_119027                  RainGage         119001           0.0568       0.0      100      1.0      0       
F_119027_bef              RainGage         119001           0.0568       0.0      100      1.0      0       
F_119027_Dach             RainGage         119001           0.0568       0.0      100      1.0      0       
F_119028                  RainGage         119001           0.0          0.0      100      1.0      0       
F_119028_bef              RainGage         119001           0.0          0.0      100      1.0      0       
F_119028_Dach             RainGage         119001           0.0          0.0      100      1.0      0       
F_119029                  RainGage         119001           0.0          0.0      100      1.0      0       
F_119029_bef              RainGage         119001           0.0          0.0      100      1.0      0       
F_119029_Dach             RainGage         119001           0.0          0.0      100      1.0      0       
F_119029A                 RainGage         119001           0.0          0.0      100      1.0      0       
F_119029A_bef             RainGage         119001           0.0          0.0      100      1.0      0       
F_119029A_Dach            RainGage         119001           0.0          0.0      100      1.0      0       
F_119030                  RainGage         119001           0.3954       0.0      100      1.0      0       
F_119030_bef              RainGage         119001           0.2062       0.0      100      1.0      0       
F_119030_Dach             RainGage         119001           0.0          0.0      100      1.0      0       
F_119031                  RainGage         119001           0.2084       0.0      100      1.0      0       
F_119031_bef              RainGage         119001           0.075        0.0      100      1.0      0       
F_119031_Dach             RainGage         119001           0.0          0.0      100      1.0      0       
F_119032                  RainGage         119001           0.1591       0.0      100      1.0      0       
F_119032_bef              RainGage         119001           0.1197       0.0      100      1.0      0       
F_119032_Dach             RainGage         119001           0.0          0.0      100      1.0      0       
F_119033                  RainGage         119001           0.1636       0.0      100      1.0      0       
F_119033_bef              RainGage         119001           0.138        0.0      100      1.0      0       
F_119033_Dach             RainGage         119001           0.0          0.0      100      1.0      0       
F_119034                  RainGage         119001           0.0771       0.0      100      1.0      0       
F_119034_bef              RainGage         119001           0.047        0.0      100      1.0      0       
F_119034_Dach             RainGage         119001           0.0          0.0      100      1.0      0       
F_119035                  RainGage         119001           0.0882       0.0      100      1.0      0       
F_119035_bef              RainGage         119001           0.0631       0.0      100      1.0      0       
F_119035_Dach             RainGage         119001           0.0          0.0      100      1.0      0       
F_119036                  RainGage         119001           0.3308       0.0      100      1.0      0       
F_119036_bef              RainGage         119001           0.2747       0.0      100      1.0      0       
F_119037                  RainGage         119001           0.076        0.0      100      1.0      0       
F_119037_bef              RainGage         119001           0.0442       0.0      100      1.0      0       
F_119037_Dach             RainGage         119001           0.0          0.0      100      1.0      0       
F_119038                  RainGage         119001           0.0979       0.0      100      1.0      0       
F_119038_bef              RainGage         119001           0.0902       0.0      100      1.0      0       
F_119038_Dach             RainGage         119001           0.0          0.0      100      1.0      0       
F_119039                  RainGage         119001           0.0147       0.0      100      1.0      0       
F_119039_bef              RainGage         119001           0.0147       0.0      100      1.0      0       
F_119039_Dach             RainGage         119001           0.0          0.0      100      1.0      0       
F_119040                  RainGage         119001           0.012        0.0      100      1.0      0       
F_119040_bef              RainGage         119001           0.0102       0.0      100      1.0      0       
F_119040_Dach             RainGage         119001           0.0          0.0      100      1.0      0       
F_119042                  RainGage         119001           0.3314       0.0      100      1.0      0       
F_119042_bef              RainGage         119001           0.2711       0.0      100      1.0      0       
F_119042_Dach             RainGage         119001           0.0          0.0      100      1.0      0       
F_119043                  RainGage         119001           0.0724       0.0      100      1.0      0       
F_119043_bef              RainGage         119001           0.0421       0.0      100      1.0      0       
F_119043_Dach             RainGage         119001           0.0          0.0      100      1.0      0       
F_119044                  RainGage         119001           0.0906       0.0      100      1.0      0       
F_119044_bef              RainGage         119001           0.045        0.0      100      1.0      0       
F_119044_Dach             RainGage         119001           0.0          0.0      100      1.0      0       
F_119045                  RainGage         119001           0.3371       0.0      100      1.0      0       
F_119045_bef              RainGage         119001           0.2215       0.0      100      1.0      0       
F_119045_Dach             RainGage         119001           0.0          0.0      100      1.0      0       
F_119046                  RainGage         119001           0.1232       0.0      100      1.0      0       
F_119046_bef              RainGage         119001           0.062        0.0      100      1.0      0       
F_119046_Dach             RainGage         119001           0.0          0.0      100      1.0      0       
F_119047                  RainGage         119001           0.0716       0.0      100      1.0      0       
F_119047_bef              RainGage         119001           0.0603       0.0      100      1.0      0       
F_119047_Dach             RainGage         119001           0.0          0.0      100      1.0      0       
F_119056                  RainGage         119001           0.1111       0.0      100      1.0      0       
F_119056_bef              RainGage         119001           0.0639       0.0      100      1.0      0       
F_119056_Dach             RainGage         119001           0.0012       0.0      100      1.0      0       
F_119057                  RainGage         119001           0.0962       0.0      100      1.0      0       
F_119057_bef              RainGage         119001           0.0391       0.0      100      1.0      0       
F_119057_Dach             RainGage         119001           0.0          0.0      100      1.0      0       
F_119058                  RainGage         119001           0.0399       0.0      100      1.0      0       
F_119058_bef              RainGage         119001           0.0088       0.0      100      1.0      0       
F_119058_Dach             RainGage         119001           0.0          0.0      100      1.0      0       
F_120001                  RainGage         119001           0.2662       0.0      100      1.0      0       
F_120001_bef              RainGage         119001           0.0          0.0      100      1.0      0       
F_120001_Dach             RainGage         119001           0.0          0.0      100      1.0      0       
F_120002                  RainGage         119001           0.2249       0.0      100      1.0      0       
F_120002_bef              RainGage         119001           0.0          0.0      100      1.0      0       
F_120002_Dach             RainGage         119001           0.0          0.0      100      1.0      0       
F_120003                  RainGage         119001           0.0754       0.0      100      1.0      0       
F_120003_bef              RainGage         119001           0.0          0.0      100      1.0      0       
F_120003_Dach             RainGage         119001           0.0          0.0      100      1.0      0       
F_120004                  RainGage         119001           0.0796       0.0      100      1.0      0       
F_120004_bef              RainGage         119001           0.0232       0.0      100      1.0      0       
F_120004_Dach             RainGage         119001           0.0          0.0      100      1.0      0       
F_120005                  RainGage         119001           0.1733       0.0      100      1.0      0       
F_120005_bef              RainGage         119001           0.056        0.0      100      1.0      0       
F_120005_Dach             RainGage         119001           0.0          0.0      100      1.0      0       
F_120006                  RainGage         119001           0.1184       0.0      100      1.0      0       
F_120006_bef              RainGage         119001           0.0          0.0      100      1.0      0       
F_120006_Dach             RainGage         119001           0.0          0.0      100      1.0      0       
F_120007                  RainGage         119001           0.0          0.0      100      1.0      0       
F_120007_bef              RainGage         119001           0.0          0.0      100      1.0      0       
F_120007_Dach             RainGage         119001           0.0          0.0      100      1.0      0       
F_120008                  RainGage         119001           0.0          0.0      100      1.0      0       
F_120008_bef              RainGage         119001           0.0          0.0      100      1.0      0       
F_120008_Dach             RainGage         119001           0.0          0.0      100      1.0      0       
F_120010                  RainGage         119001           0.0          0.0      100      1.0      0       
F_120010_bef              RainGage         119001           0.0          0.0      100      1.0      0       
F_120010_Dach             RainGage         119001           0.0          0.0      100      1.0      0       
F_120011                  RainGage         119001           0.0934       0.0      100      1.0      0       
F_120011_bef              RainGage         119001           0.0356       0.0      100      1.0      0       
F_120011_Dach             RainGage         119001           0.0356       0.0      100      1.0      0       
F_120012                  RainGage         119001           0.1549       0.0      100      1.0      0       
F_120012_bef              RainGage         119001           0.1549       0.0      100      1.0      0       
F_120012_Dach             RainGage         119001           0.0179       0.0      100      1.0      0       
F_120013                  RainGage         119001           0.105        0.0      100      1.0      0       
F_120013_bef              RainGage         119001           0.0967       0.0      100      1.0      0       
F_120013_Dach             RainGage         119001           0.0081       0.0      100      1.0      0       
F_120014                  RainGage         119001           0.141        0.0      100      1.0      0       
F_120014_bef              RainGage         119001           0.0762       0.0      100      1.0      0       
F_120014_Dach             RainGage         119001           0.0175       0.0      100      1.0      0       
F_120015                  RainGage         119001           0.1779       0.0      100      1.0      0       
F_120015_bef              RainGage         119001           0.1532       0.0      100      1.0      0       
F_120015_Dach             RainGage         119001           0.0028       0.0      100      1.0      0       
F_120016                  RainGage         119001           0.3164       0.0      100      1.0      0       
F_120016_bef              RainGage         119001           0.1321       0.0      100      1.0      0       
F_120016_Dach             RainGage         119001           0.0278       0.0      100      1.0      0       
F_120017                  RainGage         119001           0.1046       0.0      100      1.0      0       
F_120017_bef              RainGage         119001           0.0803       0.0      100      1.0      0       
F_120017_Dach             RainGage         119001           0.0185       0.0      100      1.0      0       
F_120018                  RainGage         119001           0.1276       0.0      100      1.0      0       
F_120018_bef              RainGage         119001           0.0905       0.0      100      1.0      0       
F_120018_Dach             RainGage         119001           0.0905       0.0      100      1.0      0       
F_120019                  RainGage         119001           0.0          0.0      100      1.0      0       
F_120019_bef              RainGage         119001           0.0          0.0      100      1.0      0       
F_120019_Dach             RainGage         119001           0.0          0.0      100      1.0      0       
F_120020                  RainGage         119001           0.0892       0.0      100      1.0      0       
F_120020_bef              RainGage         119001           0.0          0.0      100      1.0      0       
F_120020_Dach             RainGage         119001           0.0          0.0      100      1.0      0       
F_120021                  RainGage         119001           0.0748       0.0      100      1.0      0       
F_120021_bef              RainGage         119001           0.0          0.0      100      1.0      0       
F_120021_Dach             RainGage         119001           0.0          0.0      100      1.0      0       
F_120022                  RainGage         119001           0.1006       0.0      100      1.0      0       
F_120022_bef              RainGage         119001           0.1006       0.0      100      1.0      0       
F_120022_Dach             RainGage         119001           0.1006       0.0      100      1.0      0       

[SUBAREAS]
;;Subcatchment              N-Imperv   N-Perv     S-Imperv   S-Perv     PctZero    RouteTo    PctRouted 
;;------------------------- ---------- ---------- ---------- ---------- ---------- ---------- ----------
F_119001                       0.015      0.24       0.06     0.03     25       OUTLET   100     
F_119001_bef                   0.015      0.24       0.06     0.03     25       OUTLET   100     
F_119001_Dach                  0.015      0.24       0.06     0.03     25       OUTLET   100     
F_119002                       0.015      0.24       0.06     0.03     25       OUTLET   100     
F_119002_bef                   0.015      0.24       0.06     0.03     25       OUTLET   100     
F_119002_Dach                  0.015      0.24       0.06     0.03     25       OUTLET   100     
F_119003                       0.015      0.24       0.06     0.03     25       OUTLET   100     
F_119003_bef                   0.015      0.24       0.06     0.03     25       OUTLET   100     
F_119003_Dach                  0.015      0.24       0.06     0.03     25       OUTLET   100     
F_119004                       0.015      0.24       0.06     0.03     25       OUTLET   100     
F_119004_bef                   0.015      0.24       0.06     0.03     25       OUTLET   100     
F_119004_Dach                  0.015      0.24       0.06     0.03     25       OUTLET   100     
F_119004B01                    0.015      0.24       0.06     0.03     25       OUTLET   100     
F_119004B01_bef                0.015      0.24       0.06     0.03     25       OUTLET   100     
F_119004B01_Dach               0.015      0.24       0.06     0.03     25       OUTLET   100     
F_119004SF01                   0.015      0.24       0.06     0.03     25       OUTLET   100     
F_119004SF01_bef               0.015      0.24       0.06     0.03     25       OUTLET   100     
F_119004SF01_Dach              0.015      0.24       0.06     0.03     25       OUTLET   100     